/*--------------------------------*- C++ -*----------------------------------*\
| =========                 |                                                 |
| \\      /  F ield         | OpenFOAM: The Open Source CFD Toolbox           |
|  \\    /   O peration     | Version:  v2106                                 |
|   \\  /    A nd           | Website:  www.openfoam.com                      |
|    \\/     M anipulation  |                                                 |
\*---------------------------------------------------------------------------*/
FoamFile
{
    version     2.0;
    format      ascii;
    class       volScalarField;
    object      C_O2;
}
// * * * * * * * * * * * * * * * * * * * * * * * * * * * * * * * * * * * * * //

dimensions      [0 0 0 0 0 0 0];

internalField   uniform 1; 

boundaryField
{
    walls
    {
        type            zeroGradient;
    }
    
    lowerWall
    {
        type            zeroGradient;
    }
    
    inletE
    {
        type            fixedValue;
        value		uniform 1;
    }
    
    inletN
    {
        type            fixedValue;
        value		uniform 0;
    }
    
    outlet
    {
        type            zeroGradient;
    }
    
    frontAndBack
    {
        type            empty;
    }
}



// ************************************************************************* //
